Version 4
SHEET 1 996 980
WIRE -160 224 -192 224
WIRE -64 224 -96 224
WIRE -64 256 -64 224
WIRE 16 256 -64 256
WIRE 384 256 16 256
WIRE 464 256 384 256
WIRE 704 256 544 256
WIRE 992 256 704 256
WIRE -272 272 -448 272
WIRE -192 272 -192 224
WIRE -192 272 -272 272
WIRE -192 304 -192 272
WIRE -160 304 -192 304
WIRE -64 304 -64 256
WIRE -64 304 -80 304
WIRE 704 304 704 256
WIRE 496 368 416 368
WIRE 704 368 496 368
WIRE -272 384 -272 272
WIRE 16 384 16 256
WIRE 384 448 384 256
WIRE 384 448 336 448
WIRE 816 448 768 448
WIRE 704 464 704 368
WIRE 768 464 768 448
WIRE 768 464 704 464
WIRE 192 480 160 480
WIRE 992 480 992 256
WIRE 992 480 960 480
WIRE 768 496 688 496
WIRE 416 512 416 368
WIRE 416 512 336 512
WIRE 496 512 496 368
WIRE 768 512 768 496
WIRE 816 512 768 512
WIRE -272 544 -272 464
WIRE 16 544 16 464
WIRE 16 544 -272 544
WIRE 160 608 160 480
WIRE 160 672 160 608
WIRE 496 672 496 592
WIRE 496 672 160 672
WIRE 592 672 496 672
WIRE -448 736 -448 272
WIRE -272 864 -272 544
WIRE -208 864 -272 864
WIRE -80 864 -128 864
WIRE 592 864 592 752
WIRE 592 864 -80 864
WIRE 688 864 688 496
WIRE 688 864 592 864
WIRE -272 912 -272 864
WIRE -448 976 -448 816
WIRE -80 976 -80 864
WIRE -80 976 -448 976
FLAG -272 912 0
FLAG 160 608 vout
FLAG -272 272 Vin
SYMBOL res 560 240 R90
WINDOW 0 0 56 VBottom 2
WINDOW 3 32 56 VTop 2
SYMATTR InstName R1
SYMATTR Value 1k
SYMBOL res 480 496 R0
SYMATTR InstName R3
SYMATTR Value 1k
SYMBOL res 576 656 R0
SYMATTR InstName R4
SYMATTR Value 1k
SYMBOL res -112 848 R90
WINDOW 0 0 56 VBottom 2
WINDOW 3 32 56 VTop 2
SYMATTR InstName R5
SYMATTR Value 100k
SYMBOL res 0 368 R0
SYMATTR InstName R6
SYMATTR Value 4k
SYMBOL res -64 288 R90
WINDOW 0 0 56 VBottom 2
WINDOW 3 32 56 VTop 2
SYMATTR InstName R7
SYMATTR Value 1k
SYMBOL res -464 720 R0
SYMATTR InstName R8
SYMATTR Value 1k
SYMBOL cap 688 304 R0
WINDOW 3 21 50 Left 2
SYMATTR Value 100n
SYMATTR InstName C2
SYMBOL cap -96 208 R90
WINDOW 0 0 32 VBottom 2
WINDOW 3 32 32 VTop 2
SYMATTR InstName C6
SYMATTR Value 100n
SYMBOL voltage -272 368 R0
WINDOW 123 24 124 Left 2
WINDOW 39 0 0 Left 2
SYMATTR Value2 AC 1 0
SYMATTR InstName V1
SYMATTR Value ""
SYMBOL NutriOpAmp 256 464 M0
SYMATTR InstName Op1
SYMBOL NutriOpAmp 896 496 M180
SYMATTR InstName X1
TEXT -792 392 Left 2 !.ac dec 400 1 160k
